#AREADATA
Ver 7
Name Forest of Nowhere~
Builders tranto~
VNUMs 22450 22699
Credits Lucer~
Security 1
LevelRange 5 45
Flags BC
End

#MOBILES
#22451
tiny guard~
tiny guard~
A tiny forest guard stand here , protecting forest.~
Before you stand tiny human wearing green camouflaged clothes.He protect
animals and forest from hunters,woodcutters and destroers.
He nods you and say:"Welcome to the Forest of Nowhere brave adventurer."
~
human~
W 0 0 0 A 500 0
11 0 2d8+120 1d1+99 1d5+1 'slash'
1 1 1 2
0
stand stand male 50
0 0 tiny unknown
#22452
tiny guard~
tiny guard~
A tiny forest guard stand here , protecting forest.~
Before you stand tiny human wearing green camouflaged clothes.He protect
animals and forest from hunters,woodcutters and destroers.
He nods you and say:"Welcome to the Forest of Nowhere brave adventurer."
~
human~
W 0 0 0 A 500 0
13 0 2d7+90 1d1+99 1d5+1 'slash'
1 1 1 2
K
stand stand male 50
0 0 tiny unknown
#22453
bullroarer hobbit~
Bullroarer the Hobbit~
A hobbit standing here,selling goods.~
Before you stand a Bullroarer the Hobbit.He is strudy hobbit who is
renowned for his unusial strenght and vigor.Now he is selling some goods,
wich he find in his travels.
~
unique~
BEJVe F HN 0 A 0 0
30 0 7d12+1200 30d9+100 5d4+60 'scratch'
-20 -20 -20 -20
EFHJ
stand stand male 10000
AV ABCDF small unknown
#22454
bloody beast~
bloody beast~
A red-skinned beast growls on you.~
You see a tiny red-skinned beast look like thing from the Hell.It have 
nearly six 'feets' ,screaming with strange voice but not prepare attack
you.Probably in his language that scream is 'Greatings'.
~
pig~
W 0 0 0 0 500 0
11 0 2d8+105 1d1+99 1d3+3 'bite'
1 10 1 0
0
stand stand none 0
HM 0 tiny unknown
#22455
bloody beast~
bloody beast~
A red-skinned beast growls on you.~
You see a tiny red-skinned beast look like thing from the Hell.It have 
nearly six 'feets' ,screaming with strange voice but not prepare attack
you.Probably in his language that scream is 'Greatings'.
~
pig~
W 0 0 0 0 500 0
13 0 2d7+103 1d1+99 1d5+3 'bite'
1 10 1 0
F
stand stand none 0
HM 0 tiny unknown
#22456
guard small~
small guard~
A small forest guard stand here , watching carefully.~
Before you stand small human wearing green armor.He protect trees and
animals from forest destroers.He nods you and say:"Welcome to the Forest
of Nowhere brave adventurer.You find here peace and safety."
~
human~
GW 0 0 0 AH 500 0
18 0 2d10+400 1d1+99 5d5+5 'slash'
-2 -2 -2 2
0
stand stand male 100
0 0 small unknown
#22457
guard small~
small guard~
A small forest guard stand here , watching carefully.~
Before you stand small human wearing green armor.He protect trees and
animals from forest destroers.He nods you and say:"Welcome to the Forest
of Nowhere brave adventurer.You find here peace and safety."
~
human~
GW 0 0 0 AH 500 0
19 6 2d10+400 1d1+99 5d5+5 'pierce'
-2 -2 -2 2
K
stand stand male 100
0 0 small unknown
#22458
icky thing white~
white Icky Thing~
A small icky thing moons on you.~
It is a sort of pile of slime one legs  with rudimentary intelligence with evil cunning.
That strange creature hugers for you food.It moving chaotically and moons
on intruders.Its smell is very strong and voice of its moons are very unlike.
~
unique~
GW 0 0 0 AH -500 0
18 6 2d10+400 1d1+99 5d5+5 'scratch'
-2 -2 -2 2
0
stand stand none 0
AHMV A small unknown
#22459
icky thing blubbering~
blubbering Icky Thing~
A small icky thing moons on you.~
It is a sort of pile of slime one legs  with rudimentary intelligence with evil cunning.
That strange creature hugers for you food.It moving chaotically and moons
on intruders.Its smell is very strong and voice of its moons are very unlike.
~
unique~
GW 0 0 0 AH -500 0
19 6 2d11+410 1d1+99 5d5+5 'slime'
-2 -2 -2 2
F
stand stand none 0
AHMV A small unknown
#22460
guard medium~
medium guard~
A medium forest guard stand here,guarding.~
Before you stand medium-sized human wearing green armor.He guard forest and
hus native creatures and punish enemies of this forest.
He nods you and say :"Welcome to the Forest of Nowhere brave adventurer".
~
human~
GW 0 0 0 AH 500 0
27 8 2d15+750 1d1+99 5d5+10 'crush'
-6 -5 -6 -5
FK
stand stand male 150
0 0 medium unknown
#22461
guard medium~
medium guard~
A medium forest guard stand here,guarding.~
Before you stand medium-sized human wearing green armor.He guard forest and
hus native creatures and punish enemies of this forest.
He nods you and say :"Welcome to the Forest of Nowhere brave adventurer".
~
human~
CGW 0 0 0 AH 500 0
29 10 2d15+900 1d1+99 5d5+10 'cleave'
-6 -5 -6 -5
FJK
stand stand male 150
0 0 medium unknown
#22462
clear naga~
Clear naga~
A strange clear naga flyig here , dances in the air.~
A wraithly snakelike form with the torso of beautiful woman,the most 
powerful of it's kind.On its back you can seel a wings and his eyes have hyp
nothical power.It dance in the air and sing strange songs try to hypnotize you.
~
unique~
GW 0 TU 0 AH -500 0
26 6 2d18+700 1d1+99 5d5+7 'drain'
-6 -2 -6 -7
FK
stand stand female 0
AHMV AC small unknown
#22463
naga spirit~
spirit naga~
A strange clear naga flyig here , dances in the air.~
A wraithly snakelike form with the torso of beautiful woman,the most 
powerful of it's kind.On its back you can seel a wings and his eyes have hyp
nothical power.It dance in the air and sing strange songs try hypnotize you.
 
Around this dance shadows and spirits of his slayed enemy.
~
unique~
GW 0 TU 0 AH -500 0
29 6 2d10+900 1d1+99 5d6+11 'wrath'
-10 -10 -10 -10
FJKO
stand stand female 0
AHMV AC medium unknown
#22464
naga spirit queen~
Queen of Nagas~
A mighty naga flying here ,prepare for battle.~
A wraithly snakelike form with the torso of beautiful woman,the most 
powerful of it's kind.On its back you can seel a wings and his eyes have hyp
nothical power.It dance in the air and sing strange songs try hypnotize you.
Around this dance shadows and spirits of his slayed enemy.
On its head you can see a crown maded form strange metal.And it hisses
strange and ancient chants,prepare for battle with intruders.
~
unique~
GJRTW 0 JNTUVc AG ABH -500 0
32 6 2d10+1500 1d1+99 5d5+20 'wrath'
-10 -10 -10 -10
ACDEFJK
stand stand female 1000
AMX AC large unknown
m mob_random mob_random_breath_gas +100~
#22465
tellias ranger guard~
Tellias~
Tellias Ranger Guard of FoN stands here.~
Before you stand a tall man in light mithril chainmailand green cape.
His black hair,blue piercing eyes and musculed arms are a testimony to
his fighting prowess and physical fitness.In his hands you see ancient
staff maded form blue ice crystall.
~
unique~
GJ C HV 0 ABFH 500 0
45 30 2d40+2000 1d1+99 5d5+30 'wrath'
-15 -15 -15 -15
FJKX
stand stand male 500
AMV ACDEF large unknown
m mob_random mob_random_cast_cleric +100~
#22466
mifner captain burner~
Mifner~
Mifner Captain of forest burners stands here.~
Before you stand a giant man in black and red armor.In his breastpate
you see a sign : white skull surrounded red fire.He is look like brigand
and in his red eyes you see a flame of evilness and hate of all forest
creatures.
~
unique~
GJ 0 JV 0 ABH -500 0
45 30 2d40+2000 1d1+99 5d5+30 'acbite'
-15 -15 -15 -15
DEFJK
stand stand male 500
AMV ACDEF large unknown
m mob_random mob_random_cast_mage +100~
#22467
large forest guard~
large guard~
A large forest guard prepares for fight with burners.~
A young man dressed in superb leather armour and green stands here,
longbow strapped comfortably over his back and a longsword by his
side. He has dark black hair, and has features which are both kind
and handsome while lacking in weakness. He notices you and smiles,
while continues tending to a small deer which seems to have injured
it's leg.
~
unique~
BG 0 0 0 AH 1000 0
35 20 2d2+1500 1d1+99 6d6+35 'slash'
-10 -10 -10 -10
CFKN
stand stand male 100
AC 0 large unknown
#22468
giant guard~
giant guard~
A giant forest guard stand here ,prepates for battle with destroers.~
This massive guard wearing green clothes flexing his muscules in preparation
for upcoming battle to punish burners destroeres and his darkfriends.
~
unique~
GT 0 0 0 AH 1000 0
46 15 25d10+2600 1d1+999 32d4+8 'claw'
-12 -12 -12 -12
CDEFIJKO
stand stand male 150
AHMV 0 giant unknown
#22469
forest burner man~
forest burner~
A tall man stand here burn forest.~
A man with red armor stand here.In his arms you see a box of matches 
and you see that hi wants to burn this beautiful forest.You can attack
or help him but you think kill him is hard doing.
~
unique~
BG 0 0 0 AH -1000 0
35 20 2d2+1500 1d1+99 6d6+35 'slash'
-10 -10 -10 -10
CFKN
stand stand male 100
AC 0 large unknown
#22470
name man destroer~
forest destroer~
A tall man stand here , prepare to destroy forest.~
This massive man wearing black armor flexing his muscules in preparation
for destroy forest by twin-bladed black axe which you see in his hands.
~
unique~
GT 0 0 0 AH 1000 0
46 15 25d10+2600 1d1+999 32d4+8 'chop'
-12 -12 -12 -12
CDEFIJKO
stand stand male 150
AHMV 0 giant unknown
#22471
giant cracken~
Giant cracken~
A giant cracken swimming here , attack itruders.~
Its very strange being.It protected by large brown scales from attack.
Its blood red eyes looks on you search you defensiveless place.
Strange aura surrounds its - aura of pain and blood and doing a sound
"SCRAMP" it atatck you.
~
fish~
CF 0 HVa A AB 0 0
30 15 2d20+3000 1d1+99 1d30+20 'shbite'
-20 -20 -20 -20
0
stand stand none 0
0 0 medium unknown
F par AEJ
m mob_random mob_random_nasty +100~
#22472
human sergeant~
human sergeant~
A human sergeant stands here watching for intruders.~
Before you stands a tall man wearing jewel encrusted clothes. On his
shoulder you can see a sergeant sign. He has a blue eyes and short
black hair. His arms lie on jewel-encrusted hilt of his sword
but you see that a place for dagger on his wasit is empty.
~
human~
0 0 0 0 0 0 0
30 20 20d20+1900 1d2+99 1d10+15 'slash'
-12 -12 -12 -12
ADFHJK
stand stand none 0
0 0 medium unknown
m mob_give mob_give_sergeant 22492~
#22473
troll small rumpelsteelskin~
rumpelsteelskin~
A small black troll standing here defend his home.~
Before you stand a small black troll with huge peace of metal.
He looks on you, licks his mouth and say: "Ye brimme a food?"
~
troll~
T 0 0 K 0 -500 0
20 5 5d6+500 1d1+99 2d8+5 'grep'
-1 -1 -1 -1
FK
stand stand male 0
0 0 small unknown
#22479
~
~
~
~
human~
0 0 0 0 0 0 0
0 0 0d0+0 0d0+0 0d0+0 ''
0 0 0 0
0
stand stand none 0
0 0 medium unknown
F for AHMV
#0

#OBJECTS
#22451
seaweed~
a seaweed~
A heap of seaweed lies here.~
plant~
pill 0 0 A
20 'water breathing' '' '' ''
10 1 500 P
g @rus none~
#22452
staff green~
green staff~
The green staff incrusted by leaves lies here.~
wood~
staff B 0 AO
25 30 30 'create food' 0
2 2 120 P
E
staff~
You see a large green staff incrusted by fresh leaves.You can read runes 
on staff :"Satisfy Hunger".
~
g @rus none~
#22453
water pool~
pool of water~
You see a pool on floor,collecting water.~
moss~
fountain GY B 0
100000 100000 'water' 0 0
20 0 0 P
g @rus none~
#22454
sing plaque~
a small sign~
A small sign is here mounted on tree.~
wood~
trash 0 AB 0
0 0 0 0 0
0 0 0 P
E
credits~
This aread created and buielded by Lucer.
Most part of mobiles are friendly.
Area welcomed players from 5 and upper levels.
You can find some exp and eq for you.
So you can find food,drink and some miscellanious stuff for U.
                   Happy Mudding!
                            Lucer.
~
E
sign~
Welcome to the Forest of Nowhere!
In our friendly forest you can find a rest,food and drink.
And in our forest you can't find aggressive creatures.
But beware a deep tunnel under forest.
                     Signed Tellias,Ranger Guard of FoN.
~
g @rus none~
#22455
staff wooden training~
wooden training staff~
The small wooden staff catch your eye.~
wood~
weapon 0 0 AN
staff 10 2 'smash' DF
5 10 0 P
f object ac -6 0
f object damroll 2 0
f object hitroll 2 0
E
staff~
You see a small wooden staff maded form fresh wood.
~
g @rus none~
#22456
mace wood training~
wooden training mace~
The small wooden mace catch your eye.~
wood~
weapon 0 0 AN
mace 9 2 'smash' 0
5 10 0 P
f object hp 8 0
f object damroll 1 0
f object hitroll 1 0
g @rus none~
#22457
flail wooden training~
wooden training flail~
The small wooden flail catch your eye.~
wood~
weapon 0 0 AN
flail 9 2 'thwack' 0
5 10 0 P
f object hp 15 0
g @rus none~
#22458
leather training whip~
leather training whip~
The small leather whip catch your eye.~
leather~
weapon 0 0 AN
whip 9 2 'sting' 0
5 10 0 P
f object mana 20 0
f object damroll 3 0
g @rus none~
#22459
wooden training polearm~
wooden training polearm~
The small wooden polearm catch your eye.~
wood~
weapon 0 0 AN
polearm 10 2 'cleave' DF
5 10 0 P
f object ac -5 0
f object damroll 3 0
f object hitroll 3 0
g @rus none~
#22460
wooden training sword~
wooden training sword~
The small wooden sword catch your eye.~
wood~
weapon 0 0 AN
sword 9 2 'slash' 0
5 10 0 P
f object ac -5 0
f object damroll 3 0
g @rus none~
#22461
wooden trainig dagger~
wooden training dagger~
The small wooden dagger catch your eye.~
wood~
weapon 0 0 AN
dagger 9 2 'pierce' D
5 10 0 P
f object hitroll 1 0
f object damroll 1 0
g @rus none~
#22462
mushroom food cooked~
cooked mushroom~
A large fried mushroom lies here , waiting to be eaten.~
flesh~
food 0 0 AO
BCDE ADE 0 0 0
1 1 2 P
g @rus none~
#22463
necklace strenght power~
Necklace of Power~
A small copper necklace lies in dust.~
copper~
armor A 0 AC
3 2 4 5 0
5 1 0 P
f object str 1 0
g @rus none~
#22464
necklace intelligence magi~
Necklace of Magi~
A small copper necklace lies in dust.~
copper~
armor A 0 AC
3 2 4 5 0
5 1 0 P
f object int 1 0
g @rus none~
#22465
necklace wisdom~
Necklace of Wisdom~
A small copper necklace lies in dust.~
copper~
armor A 0 AC
3 2 4 5 0
5 1 0 P
f object wis 2 0
g @rus none~
#22466
necklace speed~
Necklace of Speed~
A small copper necklace lies in dust.~
copper~
armor A 0 AC
3 2 4 5 0
5 1 0 P
f object dex 1 0
g @rus none~
#22467
necklace life~
Necklace of Life~
A small copper necklace lies in dust.~
copper~
armor A 0 AC
3 2 4 5 0
5 1 0 P
f object con 1 0
g @rus none~
#22468
necklace beauty~
Necklace of Beauty~
A small copper necklace lies in dust.~
copper~
armor A 0 AC
3 2 4 5 0
5 1 0 P
f object cha 1 0
g @rus none~
#22469
bloody orb~
bloody orb~
A orb maded from blood lies here ,waiting his master.~
flesh~
armor CYb 0 AO
4 2 3 7 0
5 1 0 P
f object con 1 0
f object str 1 0
f object hp 12 0
f object ac -5 0
f object damroll 2 0
f object hitroll 2 0
g @rus none~
#22470
slime mold~
slime mold~
A pile of slime lies here,waiting to be eaten.~
flesh~
food 0 0 A
BD AC 0 0 0
1 2 0 P
g @rus none~
#22471
ring wildreness~
ring of wildreness~
A small ring maded from skin lies here.~
bearskin~
armor 0 0 AB
-10 0 -3 0 0
16 2 100 P
f object hp 15 0
f object damroll 1 0
f object hitroll 1 0
f object saves -5 0
g @rus none~
#22472
claw serpent~
claw of serpents~
A claw of ancient serpent lies in the dust.~
bone~
armor ACI 0 AI
12 12 13 16 0
25 5 1000 P
f object damroll 3 0
f object hitroll 3 0
f object hp 20 0
f object saves -12 0
E
runes~
Runes says :"Its make for blood and honor.But only that can wear it which spirit is strong..."
~
E
claw~
You see on ancient serpents claws.It claws is encrusted by some strange metals
and you sense aura of magic surronds him.Its linke old things but you see 
that it can't be broken.In one place you can see runes.
~
g @rus none~
#22473
leaf blade~
leaf blade~
A large leaf of unknown tree lies in the grass.~
wood~
weapon GK 0 AN
sword 9 4 'wrath' DH
28 120 0 P
f object con 2 0
f object saves -5 0
f object damroll 4 0
f object hitroll 3 0
E
leaf~
You see a large lead of unknown tree.IIt's material is very strong and it has sharp edge.
In the edge you can see a strange poisonus-smell liqud and
think that you don't like to touch it.
~
g @rus none~
#22474
leggings tail skin~
Naga's tail~
Tail's skin of naga lies on the floor.~
skin~
armor 0 0 AF
8 8 15 3 0
28 1 0 P
f object damroll 3 0
f object dex -1 0
f object saves -10 0
E
skin~
The skin on tail is very strong and you sense magical fluid ,
from it.This skin have grey color and small scales.
~
g @rus none~
#22475
staff ice crystal blue~
ice crystal staff~
A long staff maded from blue ice crystall lies here.~
crystal~
weapon KY C AN
staff 17 2 'wrath' BDF
45 100 0 P
f resists cold 5 0
f resists fire 5 0
f object ac -20 0
f object saves -10 0
f object damroll 4 0
f object hitroll 4 0
E
staff~
You see a long staff maded from blue ice crystall.You sense a aura of stange
energy surrounded it.And sometimes this staff glows brighly in you hands.
~
g @rus none~
#22476
ring signed fon~
FoN signed ring~
A ring with strange sign lies here.~
energy~
armor AI C AB
10 10 10 10 0
45 2 50000 P
f resists energy 10 0
f resists negative 10 0
f object saves -10 0
f object mana 15 0
f object hp 15 0
E
ring~
You see a ring with blue crystall surrounded by energy.
In the crystal you see stange sign such as 'F o N'.You think on this
sign some time but don't know what is it...
~
g @rus none~
#22478
bow composite darkslayer~
Composite bow named "DarkSlayer"~
A long beautiful bow maded from wood and horns lies here.~
oak~
weapon CY C AN
bow 17 2 'flbite' D
45 120 50000 P
f object damroll 5 0
f object hitroll 5 0
f object saves -10 0
f resists fire 20 0
E
bow~
You see a beatiful bow maded from composite of wood and horn ,probably
from unicorn.On the bow you can see three strange runes on unknown dead
language.But you can read it and translate but only one part :"...for
steel and fire ...".
~
g @rus none~
#22479
quiver skin~
Ornately designed quiver~
Ornately designed quiver lies here.~
skin~
container AC 0 AK
150 F 0 100 30
45 5 0 P
f resists cold 10 0
f object hp 20 0
f object damroll 5 0
f object hitroll 2 0
f object saves -12 0
E
quiver~
This quiver maded from skin of snow minotaur and encrusted by many sorts
of gems such as ruby , tiger's eye's, saphyres and etc.
~
g @rus none~
#22480
shield wooden~
wooden shield fashhioned by fresh grass~
Wooden disk lies in the grass catch your eye.~
wood~
armor 0 0 AJ
10 10 10 9 0
37 60 10000 P
f object wis -1 0
f object dex 1 0
f object damroll 5 0
f object hp 35 0
g @rus none~
#22490
box matches~
box of matches~
a box with picture of fire lies here,waiting his master.~
wood~
staff AC 0 AO
35 5 5 'fireball' 0
33 1 150000 P
f object damroll -3 0
f object hitroll -3 0
f object hp 50 0
f object mana 50 0
g @rus none~
#22491
twin bladed axe~
twin-bladed axe~
A large axe with twin blades lies here.~
steel~
weapon AC 0 AN
axe 8 4 'cleave' ADH
27 350 15000 P
f resists fire 2 0
f object hitroll -5 0
f object damroll 8 0
g @rus none~
#22492
jewelled dagger~
Jewelled dagger~
A long-bladed dagger incrusted by jewels lies here, waiting his master.~
unknown~
weapon A 0 AN
dagger 8 5 'pierce' HK
30 5 0 P
f object hitroll -2 0
f object damroll 8 0
g @rus none~
#22493
jewelled broadsword sword~
Jewelled broadsword~
A broad sword incrusted by jewels lies here, waiting his master.~
unknown~
weapon A 0 AN
sword 8 5 'slash' D
30 160 15000 P
f object damroll 2 0
f object hitroll 3 0
g @rus none~
#22494
wooven leather bracer~
wooven leather bracer~
A small bracer lies here, catches dust.~
unknown~
armor U 0 AM
5 5 5 8 0
25 10 10000 P
f object damroll 2 0
f resists negative 2 0
f resists weapon 1 0
f resists slash 1 0
f object saves -5 0
g @rus none~
#22495
black runed key~
Black runed key~
A black key covered with runes lies here.~
wood~
key CHMU 0 AO
0 0 0 0 0
1 10 0 P
g @rus none~
#0

#ROOMS
#22451
Entrance into Forest~
You standing in a small valley leading into forest.Around valley are small
groves of trees.In this groves you can see a lot of different creatures 
danced around trees.In the west you can see a great forest contains from
groups of one-sorted trees.In the far south west you can see a high mountain.
~
0 0 forest
D3
~
~
~
~
Z 0 22452
S
#22452
In the Forest of Nowhere~
You standing in the great Forest of Nowhere.You surrounded a lots of trees.
If you looks up you can see a sun, surrounded by multi-colored 
rainbow in the blue-blue sky.If you looks down you can see a fresh grass,
and many small creatures living under you boots.In far south west you can
see a high mountain.And nearly you can see a hole leading down.
~
0 0 forest
D0
~
~
~
~
Z 0 22454
D1
~
~
~
~
Z 0 22451
D2
~
~
~
~
Z 0 22453
D3
~
~
~
~
Z 0 22456
D5
~
~
~
~
Z 0 22462
S
#22453
Camp-In-The-Forest~
You stand in small clearing in the forest.You can see a lot of 
adventures rest here , and in the corner you can see a hobbit ,who 
sell his goods.In other corner you can see campfire , and some adventrers
prepare they food on it.You think you are to tired and need rest here.
~
0 0 forest
D0
~
~
~
~
Z 0 22452
M 125 H 125
S
#22454
In the Forest of Nowhere~
You standing in the great Forest of Nowhere.You surrounded a lots of trees.
If you looks up you can see a sun, surrounded by multi-colored 
rainbow in the blue-blue sky.If you looks down you can see a fresh grass,
and many small creatures living under you boots.In far south west you can
see a high mountain.And nearly you can see a hole leading down.
~
0 0 forest
D2
~
~
~
~
Z 0 22452
D3
~
~
~
~
Z 0 22455
D5
~
~
~
~
Z 0 22461
S
#22455
In the Forest of Nowhere~
You standing in the great Forest of Nowhere.You surrounded a lots of trees.
If you looks up you can see a sun, surrounded by multi-colored 
rainbow in the blue-blue sky.If you looks down you can see a fresh grass,
and many small creatures living under you boots.In far south west you can
see a high mountain.And nearly you can see a hole leading down.
~
0 0 forest
D0
~
~
~
~
Z 0 22502
D1
~
~
~
~
Z 0 22454
D2
~
~
~
~
Z 0 22456
D3
~
~
~
~
Z 0 22457
D5
~
~
~
~
Z 0 22463
S
#22456
In the Forest of Nowhere~
You standing in the great Forest of Nowhere.You surrounded a lots of trees.
If you looks up you can see a sun, surrounded by multi-colored 
rainbow in the blue-blue sky.If you looks down you can see a fresh grass,
and many small creatures living under you boots.In far south west you can
see a high mountain. And nearly you can see a hole leading down.
~
0 0 forest
D0
~
~
~
~
Z 0 22455
D1
~
~
~
~
Z 0 22452
D3
~
~
~
~
Z 0 22458
D5
~
~
~
~
Z 0 22464
S
#22457
In the Forest of Nowhere~
You standing in the great Forest of Nowhere.You surrounded a lots of trees.
If you looks up you can see a sun, surrounded by multi-colored 
rainbow in the blue-blue sky.If you looks down you can see a fresh grass,
and many small creatures living under you boots.In far south west you can
see a high mountain.And nearly you can see a hole leading down.
~
0 0 forest
D1
~
~
~
~
Z 0 22455
D2
~
~
~
~
Z 0 22458
D3
~
~
~
~
Z 0 22459
D5
~
~
~
~
Z 0 22465
S
#22458
In the Forest of Nowhere~
You standing in the great Forest of Nowhere.You surrounded a lots of trees.
If you looks up you can see a sun, surrounded by multi-colored 
rainbow in the blue-blue sky.If you looks down you can see a fresh grass,
and many small creatures living under you boots.In far south west you can
see a high mountain.And nearly you can see a hole leading down.
~
0 0 forest
D0
~
~
~
~
Z 0 22457
D1
~
~
~
~
Z 0 22456
D3
~
~
~
~
Z 0 22460
D5
~
~
~
~
Z 0 22466
S
#22459
In the Forest of Nowhere~
You standing in the great Forest of Nowhere.You surrounded a lots of trees.
If you looks up you can see a sun, surrounded by multi-colored 
rainbow in the blue-blue sky.If you looks down you can see a fresh grass,
and many small creatures living under you boots.In far south west you can
see a high mountain.And nearly you can see a hole leading down.
~
0 0 forest
D0
~
~
~
~
Z 0 22506
D1
~
~
~
~
Z 0 22457
D2
~
~
~
~
Z 0 22460
D3
~
~
~
~
Z 0 22469
D5
~
~
~
~
Z 0 22467
S
#22460
In the Forest of Nowhere~
You standing in the great Forest of Nowhere.You surrounded a lots of trees.
If you looks up you can see a sun, surrounded by multi-colored 
rainbow in the blue-blue sky.If you looks down you can see a fresh grass,
and many small creatures living under you boots.In far south west you can
see a high mountain.And nearly you can see a hole leading down.
~
0 0 forest
D0
~
~
~
~
Z 0 22459
D1
~
~
~
~
Z 0 22458
D3
~
~
~
~
Z 0 22470
D5
~
~
~
~
Z 0 22468
S
#22461
In the dark tunnel under forest~
You standing in the small tunnel under forest.You sense strange smell and
see around you many strange creatures,living in the darkness.But you see
a hole nearly up and from this hole you see sun and part of forest.
Upper for you grows some strange things , probably it are roots of forest trees.
In the floor of tunnel you see lot of sorts of mushrooms and molds.
~
0 0 inside
D2
~
~
~
~
Z 0 22462
D3
~
~
~
~
Z 0 22463
D4
~
~
~
~
Z 0 22454
S
#22462
In the dark tunnel under forest~
You standing in the small tunnel under forest.You sense strange smell and
see around you many strange creatures,living in the darkness.But you see
a hole nearly up and from this hole you see sun and part of forest.
Upper for you grows some strange things , probably it are roots of forest trees.
In the floor of tunnel you see lot of sorts of mushrooms and molds.
~
0 0 inside
D0
~
~
~
~
Z 0 22461
D3
~
~
~
~
Z 0 22464
D4
~
~
~
~
Z 0 22452
S
#22463
In the dark tunnel under forest~
You standing in the small tunnel under forest.You sense strange smell and
see around you many strange creatures,living in the darkness.But you see
a hole nearly up and from this hole you see sun and part of forest.
Upper for you grows some strange things , probably it are roots of forest trees.
In the floor of tunnel you see lot of sorts of mushrooms and molds.
~
0 0 inside
D1
~
~
~
~
Z 0 22461
D2
~
~
~
~
Z 0 22464
D3
~
~
~
~
Z 0 22465
D4
~
~
~
~
Z 0 22455
S
#22464
In the dark tunnel under forest~
You standing in the small tunnel under forest.You sense strange smell and
see around you many strange creatures,living in the darkness.But you see
a hole nearly up and from this hole you see sun and part of forest.
Upper for you grows some strange things , probably it are roots of forest trees.
In the floor of tunnel you see lot of sorts of mushrooms and molds.
~
0 0 inside
D0
~
~
~
~
Z 0 22463
D1
~
~
~
~
Z 0 22462
D3
~
~
~
~
Z 0 22466
D4
~
~
~
~
Z 0 22456
S
#22465
In the dark tunnel under forest~
You standing in the small tunnel under forest.You sense strange smell and
see around you many strange creatures,living in the darkness.But you see
a hole nearly up and from this hole you see sun and part of forest.
Upper for you grows some strange things , probably it are roots of forest trees.
In the floor of tunnel you see lot of sorts of mushrooms and molds.
~
0 0 inside
D1
~
~
~
~
Z 0 22463
D2
~
~
~
~
Z 0 22466
D3
~
~
~
~
Z 0 22467
D4
~
~
~
~
Z 0 22457
S
#22466
In the dark tunnel under forest~
You standing in the small tunnel under forest.You sense strange smell and
see around you many strange creatures,living in the darkness.But you see
a hole nearly up and from this hole you see sun and part of forest.
Upper for you grows some strange things , probably it are roots of forest trees.
In the floor of tunnel you see lot of sorts of mushrooms and molds.
~
0 0 inside
D0
~
~
~
~
Z 0 22465
D1
~
~
~
~
Z 0 22464
D3
~
~
~
~
Z 0 22468
D4
~
~
~
~
Z 0 22458
S
#22467
In the dark tunnel under forest~
You standing in the small tunnel under forest.You sense strange smell and
see around you many strange creatures,living in the darkness.But you see
a hole nearly up and from this hole you see sun and part of forest.
Upper for you grows some strange things , probably it are roots of forest trees.
In the floor of tunnel you see lot of sorts of mushrooms and molds.
~
0 0 inside
D1
~
~
~
~
Z 0 22465
D2
~
~
~
~
Z 0 22468
D3
~
~
~
~
Z 0 22477
D4
~
~
~
~
Z 0 22459
S
#22468
In the dark tunnel under forest~
You standing in the small tunnel under forest.You sense strange smell and
see around you many strange creatures,living in the darkness.But you see
a hole nearly up and from this hole you see sun and part of forest.
Upper for you grows some strange things , probably it are roots of forest trees.
In the floor of tunnel you see lot of sorts of mushrooms and molds.
~
0 0 inside
D0
~
~
~
~
Z 0 22467
D1
~
~
~
~
Z 0 22466
D3
~
~
~
~
Z 0 22478
D4
~
~
~
~
Z 0 22460
S
#22469
In the Forest of Nowhere~
You standing in the great Forest of Nowhere.You surrounded a lots of trees.
If you looks up you can see a sun, surrounded by multi-colored 
rainbow in the blue-blue sky.If you looks down you can see a fresh grass,
and many small creatures living under you boots.In far south west you can
see a high mountain.And nearly you can see a hole leading down.
~
0 0 forest
D1
~
~
~
~
Z 0 22459
D2
~
~
~
~
Z 0 22470
D3
~
~
~
~
Z 0 22471
D5
~
~
~
~
Z 0 22477
S
#22470
In the Forest of Nowhere~
You standing in the great Forest of Nowhere.You surrounded a lots of trees.
If you looks up you can see a sun, surrounded by multi-colored 
rainbow in the blue-blue sky.If you looks down you can see a fresh grass,
and many small creatures living under you boots.In far south west you can
see a high mountain.And nearly you can see a hole leading down.
~
0 0 forest
D0
~
~
~
~
Z 0 22469
D1
~
~
~
~
Z 0 22460
D3
~
~
~
~
Z 0 22472
D5
~
~
~
~
Z 0 22478
S
#22471
In the Forest of Nowhere~
You standing in the great Forest of Nowhere.You surrounded a lots of trees.
If you looks up you can see a sun, surrounded by multi-colored 
rainbow in the blue-blue sky.If you looks down you can see a fresh grass,
and many small creatures living under you boots.In far south west you can
see a high mountain.And nearly you can see a hole leading down.
~
0 0 forest
D0
~
~
~
~
Z 0 22517
D1
~
~
~
~
Z 0 22469
D2
~
~
~
~
Z 0 22472
D3
~
~
~
~
Z 0 22473
D5
~
~
~
~
Z 0 22479
S
#22472
In the Forest of Nowhere~
You standing in the great Forest of Nowhere.You surrounded a lots of trees.
If you looks up you can see a sun, surrounded by multi-colored 
rainbow in the blue-blue sky.If you looks down you can see a fresh grass,
and many small creatures living under you boots.In far south west you can
see a high mountain.And nearly you can see a hole leading down.
~
0 0 forest
D0
~
~
~
~
Z 0 22471
D1
~
~
~
~
Z 0 22470
D3
~
~
~
~
Z 0 22474
D5
~
~
~
~
Z 0 22480
S
#22473